*SPEF "ieee 1481-1999"
*DESIGN "gcd"
*DATE "06:54:08 Friday July 26, 2024"
*VENDOR "The OpenROAD Project"
*PROGRAM "OpenROAD"
*VERSION "v2.0-14338-gbf8a6a7a1"
*DESIGN_FLOW "NAME_SCOPE LOCAL" "PIN_CAP NONE"
*DIVIDER /
*DELIMITER :
*BUS_DELIMITER []
*T_UNIT 1 NS
*C_UNIT 1 PF
*R_UNIT 1 OHM
*L_UNIT 1 HENRY

*NAME_MAP
*1 clk
*2 _066_
*3 _067_
*4 _068_
*5 _069_
*6 _070_
*7 _071_
*8 _072_
*9 _073_
*10 _074_
*11 _075_
*12 _076_
*13 _077_
*14 _078_
*15 _079_
*16 _080_
*17 _081_
*18 _082_
*19 _083_
*20 _084_
*21 _085_
*22 _086_
*23 _087_
*24 _088_
*25 _089_
*26 _090_
*27 _091_
*28 _092_
*29 _093_
*30 _094_
*31 _095_
*32 _096_
*33 _097_
*34 _098_
*35 _099_
*36 _100_
*37 _101_
*38 _102_
*39 _103_
*40 _104_
*41 _105_
*42 _106_
*43 _107_
*44 _108_
*45 _109_
*46 _110_
*47 _111_
*48 _112_
*49 _113_
*50 _114_
*51 _115_
*52 _116_
*53 _117_
*54 _118_
*55 _119_
*56 _120_
*57 _121_
*58 _122_
*59 _123_
*60 _124_
*61 _125_
*62 _126_
*63 _127_
*64 _128_
*65 _129_
*66 _130_
*67 _001_
*68 _002_
*69 _003_
*70 _004_
*71 _005_
*72 _006_
*73 _007_
*74 _008_
*75 _009_
*76 _010_
*77 _011_
*78 _012_
*79 _013_
*80 _014_
*81 _015_
*82 _016_
*83 _017_
*84 _018_
*85 _019_
*86 _020_
*87 _021_
*88 _022_
*89 _023_
*90 _024_
*91 _025_
*92 _026_
*93 _027_
*94 _028_
*95 _029_
*96 _030_
*97 _031_
*98 _032_
*99 _033_
*100 _034_
*101 _035_
*102 _036_
*103 _037_
*104 _038_
*105 _039_
*106 _040_
*107 _041_
*108 _042_
*109 _043_
*110 _044_
*111 _045_
*112 _046_
*113 _047_
*114 _048_
*115 _049_
*116 _050_
*117 _051_
*118 _052_
*119 _053_
*120 _054_
*121 _055_
*122 _056_
*123 _057_
*124 _058_
*125 _059_
*126 _060_
*127 _061_
*128 _062_
*129 _063_
*130 _064_
*131 _065_
*132 PHY_EDGE_ROW_0_Right_0
*133 PHY_EDGE_ROW_1_Right_1
*134 PHY_EDGE_ROW_2_Right_2
*135 PHY_EDGE_ROW_3_Right_3
*136 PHY_EDGE_ROW_4_Right_4
*137 PHY_EDGE_ROW_5_Right_5
*138 PHY_EDGE_ROW_6_Right_6
*139 PHY_EDGE_ROW_7_Right_7
*140 PHY_EDGE_ROW_8_Right_8
*141 PHY_EDGE_ROW_9_Right_9
*142 PHY_EDGE_ROW_10_Right_10
*143 PHY_EDGE_ROW_11_Right_11
*144 PHY_EDGE_ROW_12_Right_12
*145 PHY_EDGE_ROW_13_Right_13
*146 PHY_EDGE_ROW_14_Right_14
*147 PHY_EDGE_ROW_15_Right_15
*148 PHY_EDGE_ROW_16_Right_16
*149 PHY_EDGE_ROW_17_Right_17
*150 PHY_EDGE_ROW_18_Right_18
*151 PHY_EDGE_ROW_19_Right_19
*152 PHY_EDGE_ROW_20_Right_20
*153 PHY_EDGE_ROW_21_Right_21
*154 PHY_EDGE_ROW_22_Right_22
*155 PHY_EDGE_ROW_23_Right_23
*156 PHY_EDGE_ROW_24_Right_24
*157 PHY_EDGE_ROW_25_Right_25
*158 PHY_EDGE_ROW_26_Right_26
*159 PHY_EDGE_ROW_27_Right_27
*160 PHY_EDGE_ROW_28_Right_28
*161 PHY_EDGE_ROW_29_Right_29
*162 PHY_EDGE_ROW_30_Right_30
*163 PHY_EDGE_ROW_31_Right_31
*164 PHY_EDGE_ROW_32_Right_32
*165 PHY_EDGE_ROW_33_Right_33
*166 PHY_EDGE_ROW_34_Right_34
*167 PHY_EDGE_ROW_35_Right_35
*168 PHY_EDGE_ROW_36_Right_36
*169 PHY_EDGE_ROW_37_Right_37
*170 PHY_EDGE_ROW_38_Right_38
*171 PHY_EDGE_ROW_39_Right_39
*172 PHY_EDGE_ROW_40_Right_40
*173 PHY_EDGE_ROW_41_Right_41
*174 PHY_EDGE_ROW_42_Right_42
*175 PHY_EDGE_ROW_43_Right_43
*176 PHY_EDGE_ROW_44_Right_44
*177 PHY_EDGE_ROW_45_Right_45
*178 PHY_EDGE_ROW_46_Right_46
*179 PHY_EDGE_ROW_47_Right_47
*180 PHY_EDGE_ROW_48_Right_48
*181 PHY_EDGE_ROW_49_Right_49
*182 PHY_EDGE_ROW_50_Right_50
*183 PHY_EDGE_ROW_51_Right_51
*184 PHY_EDGE_ROW_52_Right_52
*185 PHY_EDGE_ROW_53_Right_53
*186 PHY_EDGE_ROW_54_Right_54
*187 PHY_EDGE_ROW_55_Right_55
*188 PHY_EDGE_ROW_56_Right_56
*189 PHY_EDGE_ROW_0_Left_57
*190 PHY_EDGE_ROW_1_Left_58
*191 PHY_EDGE_ROW_2_Left_59
*192 PHY_EDGE_ROW_3_Left_60
*193 PHY_EDGE_ROW_4_Left_61
*194 PHY_EDGE_ROW_5_Left_62
*195 PHY_EDGE_ROW_6_Left_63
*196 PHY_EDGE_ROW_7_Left_64
*197 PHY_EDGE_ROW_8_Left_65
*198 PHY_EDGE_ROW_9_Left_66
*199 PHY_EDGE_ROW_10_Left_67
*200 PHY_EDGE_ROW_11_Left_68
*201 PHY_EDGE_ROW_12_Left_69
*202 PHY_EDGE_ROW_13_Left_70
*203 PHY_EDGE_ROW_14_Left_71
*204 PHY_EDGE_ROW_15_Left_72
*205 PHY_EDGE_ROW_16_Left_73
*206 PHY_EDGE_ROW_17_Left_74
*207 PHY_EDGE_ROW_18_Left_75
*208 PHY_EDGE_ROW_19_Left_76
*209 PHY_EDGE_ROW_20_Left_77
*210 PHY_EDGE_ROW_21_Left_78
*211 PHY_EDGE_ROW_22_Left_79
*212 PHY_EDGE_ROW_23_Left_80
*213 PHY_EDGE_ROW_24_Left_81
*214 PHY_EDGE_ROW_25_Left_82
*215 PHY_EDGE_ROW_26_Left_83
*216 PHY_EDGE_ROW_27_Left_84
*217 PHY_EDGE_ROW_28_Left_85
*218 PHY_EDGE_ROW_29_Left_86
*219 PHY_EDGE_ROW_30_Left_87
*220 PHY_EDGE_ROW_31_Left_88
*221 PHY_EDGE_ROW_32_Left_89
*222 PHY_EDGE_ROW_33_Left_90
*223 PHY_EDGE_ROW_34_Left_91
*224 PHY_EDGE_ROW_35_Left_92
*225 PHY_EDGE_ROW_36_Left_93
*226 PHY_EDGE_ROW_37_Left_94
*227 PHY_EDGE_ROW_38_Left_95
*228 PHY_EDGE_ROW_39_Left_96
*229 PHY_EDGE_ROW_40_Left_97
*230 PHY_EDGE_ROW_41_Left_98
*231 PHY_EDGE_ROW_42_Left_99
*232 PHY_EDGE_ROW_43_Left_100
*233 PHY_EDGE_ROW_44_Left_101
*234 PHY_EDGE_ROW_45_Left_102
*235 PHY_EDGE_ROW_46_Left_103
*236 PHY_EDGE_ROW_47_Left_104
*237 PHY_EDGE_ROW_48_Left_105
*238 PHY_EDGE_ROW_49_Left_106
*239 PHY_EDGE_ROW_50_Left_107
*240 PHY_EDGE_ROW_51_Left_108
*241 PHY_EDGE_ROW_52_Left_109
*242 PHY_EDGE_ROW_53_Left_110
*243 PHY_EDGE_ROW_54_Left_111
*244 PHY_EDGE_ROW_55_Left_112
*245 PHY_EDGE_ROW_56_Left_113
*246 FILLER_0_0_1
*247 FILLER_0_0_33
*248 FILLER_0_0_65
*249 FILLER_0_0_97
*250 FILLER_0_0_129
*251 FILLER_0_0_161
*252 FILLER_0_0_193
*253 FILLER_0_0_225
*254 FILLER_0_0_257
*255 FILLER_0_0_289
*256 FILLER_0_0_321
*257 FILLER_0_0_353
*258 FILLER_0_0_385
*259 FILLER_0_0_417
*260 FILLER_0_1_1
*261 FILLER_0_1_33
*262 FILLER_0_1_37
*263 FILLER_0_1_39
*264 FILLER_0_1_57
*265 FILLER_0_1_89
*266 FILLER_0_1_97
*267 FILLER_0_1_99
*268 FILLER_0_1_107
*269 FILLER_0_1_139
*270 FILLER_0_1_171
*271 FILLER_0_1_203
*272 FILLER_0_1_235
*273 FILLER_0_1_267
*274 FILLER_0_1_299
*275 FILLER_0_1_331
*276 FILLER_0_1_363
*277 FILLER_0_1_395
*278 FILLER_0_1_411
*279 FILLER_0_1_419
*280 FILLER_0_2_1
*281 FILLER_0_2_17
*282 FILLER_0_2_28
*283 FILLER_0_2_44
*284 FILLER_0_2_62
*285 FILLER_0_2_70
*286 FILLER_0_2_74
*287 FILLER_0_2_76
*288 FILLER_0_2_84
*289 FILLER_0_2_99
*290 FILLER_0_2_108
*291 FILLER_0_2_140
*292 FILLER_0_2_172
*293 FILLER_0_2_204
*294 FILLER_0_2_236
*295 FILLER_0_2_268
*296 FILLER_0_2_300
*297 FILLER_0_2_332
*298 FILLER_0_2_364
*299 FILLER_0_2_396
*300 FILLER_0_2_412
*301 FILLER_0_2_420
*302 FILLER_0_3_1
*303 FILLER_0_3_17
*304 FILLER_0_3_25
*305 FILLER_0_3_34
*306 FILLER_0_3_43
*307 FILLER_0_3_59
*308 FILLER_0_3_67
*309 FILLER_0_3_71
*310 FILLER_0_3_80
*311 FILLER_0_3_96
*312 FILLER_0_3_111
*313 FILLER_0_3_120
*314 FILLER_0_3_129
*315 FILLER_0_3_161
*316 FILLER_0_3_193
*317 FILLER_0_3_225
*318 FILLER_0_3_257
*319 FILLER_0_3_289
*320 FILLER_0_3_321
*321 FILLER_0_3_353
*322 FILLER_0_3_385
*323 FILLER_0_3_417
*324 FILLER_0_4_1
*325 FILLER_0_4_17
*326 FILLER_0_4_19
*327 FILLER_0_4_27
*328 FILLER_0_4_36
*329 FILLER_0_4_68
*330 FILLER_0_4_72
*331 FILLER_0_4_74
*332 FILLER_0_4_82
*333 FILLER_0_4_114
*334 FILLER_0_4_122
*335 FILLER_0_4_133
*336 FILLER_0_4_165
*337 FILLER_0_4_197
*338 FILLER_0_4_229
*339 FILLER_0_4_261
*340 FILLER_0_4_293
*341 FILLER_0_4_325
*342 FILLER_0_4_357
*343 FILLER_0_4_389
*344 FILLER_0_5_1
*345 FILLER_0_5_17
*346 FILLER_0_5_26
*347 FILLER_0_5_35
*348 FILLER_0_5_67
*349 FILLER_0_5_69
*350 FILLER_0_5_77
*351 FILLER_0_5_109
*352 FILLER_0_5_117
*353 FILLER_0_5_125
*354 FILLER_0_5_134
*355 FILLER_0_5_166
*356 FILLER_0_5_198
*357 FILLER_0_5_230
*358 FILLER_0_5_262
*359 FILLER_0_5_294
*360 FILLER_0_5_326
*361 FILLER_0_5_358
*362 FILLER_0_5_390
*363 FILLER_0_5_406
*364 FILLER_0_5_414
*365 FILLER_0_5_418
*366 FILLER_0_5_420
*367 FILLER_0_6_1
*368 FILLER_0_6_33
*369 FILLER_0_6_65
*370 FILLER_0_6_73
*371 FILLER_0_6_81
*372 FILLER_0_6_83
*373 FILLER_0_6_91
*374 FILLER_0_6_107
*375 FILLER_0_6_115
*376 FILLER_0_6_126
*377 FILLER_0_6_135
*378 FILLER_0_6_167
*379 FILLER_0_6_199
*380 FILLER_0_6_231
*381 FILLER_0_6_263
*382 FILLER_0_6_295
*383 FILLER_0_6_327
*384 FILLER_0_6_359
*385 FILLER_0_6_391
*386 FILLER_0_6_407
*387 FILLER_0_6_415
*388 FILLER_0_6_419
*389 FILLER_0_7_1
*390 FILLER_0_7_17
*391 FILLER_0_7_21
*392 FILLER_0_7_29
*393 FILLER_0_7_61
*394 FILLER_0_7_76
*395 FILLER_0_7_80
*396 FILLER_0_7_88
*397 FILLER_0_7_120
*398 FILLER_0_7_128
*399 FILLER_0_7_136
*400 FILLER_0_7_142
*401 FILLER_0_7_174
*402 FILLER_0_7_206
*403 FILLER_0_7_238
*404 FILLER_0_7_270
*405 FILLER_0_7_302
*406 FILLER_0_7_334
*407 FILLER_0_7_366
*408 FILLER_0_7_398
*409 FILLER_0_7_414
*410 FILLER_0_7_418
*411 FILLER_0_7_420
*412 FILLER_0_8_1
*413 FILLER_0_8_17
*414 FILLER_0_8_25
*415 FILLER_0_8_33
*416 FILLER_0_8_42
*417 FILLER_0_8_74
*418 FILLER_0_8_91
*419 FILLER_0_8_123
*420 FILLER_0_8_128
*421 FILLER_0_8_139
*422 FILLER_0_8_171
*423 FILLER_0_8_203
*424 FILLER_0_8_235
*425 FILLER_0_8_267
*426 FILLER_0_8_299
*427 FILLER_0_8_331
*428 FILLER_0_8_363
*429 FILLER_0_8_395
*430 FILLER_0_8_411
*431 FILLER_0_8_419
*432 FILLER_0_9_1
*433 FILLER_0_9_17
*434 FILLER_0_9_21
*435 FILLER_0_9_30
*436 FILLER_0_9_41
*437 FILLER_0_9_73
*438 FILLER_0_9_77
*439 FILLER_0_9_83
*440 FILLER_0_9_115
*441 FILLER_0_9_147
*442 FILLER_0_9_179
*443 FILLER_0_9_211
*444 FILLER_0_9_243
*445 FILLER_0_9_275
*446 FILLER_0_9_307
*447 FILLER_0_9_339
*448 FILLER_0_9_371
*449 FILLER_0_9_403
*450 FILLER_0_9_419
*451 FILLER_0_10_1
*452 FILLER_0_10_17
*453 FILLER_0_10_21
*454 FILLER_0_10_23
*455 FILLER_0_10_31
*456 FILLER_0_10_47
*457 FILLER_0_10_55
*458 FILLER_0_10_57
*459 FILLER_0_10_75
*460 FILLER_0_10_107
*461 FILLER_0_10_139
*462 FILLER_0_10_171
*463 FILLER_0_10_203
*464 FILLER_0_10_235
*465 FILLER_0_10_267
*466 FILLER_0_10_299
*467 FILLER_0_10_331
*468 FILLER_0_10_363
*469 FILLER_0_10_395
*470 FILLER_0_10_411
*471 FILLER_0_10_419
*472 FILLER_0_11_1
*473 FILLER_0_11_17
*474 FILLER_0_11_21
*475 FILLER_0_11_30
*476 FILLER_0_11_62
*477 FILLER_0_11_94
*478 FILLER_0_11_110
*479 FILLER_0_11_114
*480 FILLER_0_11_116
*481 FILLER_0_11_124
*482 FILLER_0_11_133
*483 FILLER_0_11_165
*484 FILLER_0_11_197
*485 FILLER_0_11_229
*486 FILLER_0_11_261
*487 FILLER_0_11_293
*488 FILLER_0_11_325
*489 FILLER_0_11_357
*490 FILLER_0_11_389
*491 FILLER_0_12_1
*492 FILLER_0_12_9
*493 FILLER_0_12_13
*494 FILLER_0_12_22
*495 FILLER_0_12_31
*496 FILLER_0_12_40
*497 FILLER_0_12_72
*498 FILLER_0_12_76
*499 FILLER_0_12_85
*500 FILLER_0_12_94
*501 FILLER_0_12_110
*502 FILLER_0_12_119
*503 FILLER_0_12_128
*504 FILLER_0_12_139
*505 FILLER_0_12_148
*506 FILLER_0_12_180
*507 FILLER_0_12_212
*508 FILLER_0_12_244
*509 FILLER_0_12_276
*510 FILLER_0_12_308
*511 FILLER_0_12_340
*512 FILLER_0_12_372
*513 FILLER_0_12_404
*514 FILLER_0_12_420
*515 FILLER_0_13_1
*516 FILLER_0_13_17
*517 FILLER_0_13_21
*518 FILLER_0_13_30
*519 FILLER_0_13_39
*520 FILLER_0_13_55
*521 FILLER_0_13_63
*522 FILLER_0_13_67
*523 FILLER_0_13_69
*524 FILLER_0_13_77
*525 FILLER_0_13_86
*526 FILLER_0_13_95
*527 FILLER_0_13_111
*528 FILLER_0_13_120
*529 FILLER_0_13_129
*530 FILLER_0_13_138
*531 FILLER_0_13_170
*532 FILLER_0_13_202
*533 FILLER_0_13_234
*534 FILLER_0_13_266
*535 FILLER_0_13_298
*536 FILLER_0_13_330
*537 FILLER_0_13_362
*538 FILLER_0_13_394
*539 FILLER_0_13_410
*540 FILLER_0_13_418
*541 FILLER_0_13_420
*542 FILLER_0_14_1
*543 FILLER_0_14_33
*544 FILLER_0_14_41
*545 FILLER_0_14_59
*546 FILLER_0_14_78
*547 FILLER_0_14_87
*548 FILLER_0_14_119
*549 FILLER_0_14_151
*550 FILLER_0_14_183
*551 FILLER_0_14_215
*552 FILLER_0_14_247
*553 FILLER_0_14_279
*554 FILLER_0_14_311
*555 FILLER_0_14_343
*556 FILLER_0_14_375
*557 FILLER_0_14_407
*558 FILLER_0_14_415
*559 FILLER_0_14_419
*560 FILLER_0_15_1
*561 FILLER_0_15_33
*562 FILLER_0_15_65
*563 FILLER_0_15_97
*564 FILLER_0_15_129
*565 FILLER_0_15_161
*566 FILLER_0_15_193
*567 FILLER_0_15_225
*568 FILLER_0_15_257
*569 FILLER_0_15_289
*570 FILLER_0_15_321
*571 FILLER_0_15_353
*572 FILLER_0_15_385
*573 FILLER_0_15_417
*574 FILLER_0_16_1
*575 FILLER_0_16_33
*576 FILLER_0_16_65
*577 FILLER_0_16_97
*578 FILLER_0_16_129
*579 FILLER_0_16_161
*580 FILLER_0_16_193
*581 FILLER_0_16_225
*582 FILLER_0_16_257
*583 FILLER_0_16_289
*584 FILLER_0_16_321
*585 FILLER_0_16_353
*586 FILLER_0_16_385
*587 FILLER_0_16_417
*588 FILLER_0_17_1
*589 FILLER_0_17_33
*590 FILLER_0_17_65
*591 FILLER_0_17_97
*592 FILLER_0_17_129
*593 FILLER_0_17_161
*594 FILLER_0_17_193
*595 FILLER_0_17_225
*596 FILLER_0_17_257
*597 FILLER_0_17_289
*598 FILLER_0_17_321
*599 FILLER_0_17_353
*600 FILLER_0_17_385
*601 FILLER_0_17_417
*602 FILLER_0_18_1
*603 FILLER_0_18_33
*604 FILLER_0_18_65
*605 FILLER_0_18_97
*606 FILLER_0_18_129
*607 FILLER_0_18_161
*608 FILLER_0_18_193
*609 FILLER_0_18_225
*610 FILLER_0_18_257
*611 FILLER_0_18_289
*612 FILLER_0_18_321
*613 FILLER_0_18_353
*614 FILLER_0_18_385
*615 FILLER_0_18_417
*616 FILLER_0_19_1
*617 FILLER_0_19_33
*618 FILLER_0_19_65
*619 FILLER_0_19_97
*620 FILLER_0_19_129
*621 FILLER_0_19_161
*622 FILLER_0_19_193
*623 FILLER_0_19_225
*624 FILLER_0_19_257
*625 FILLER_0_19_289
*626 FILLER_0_19_321
*627 FILLER_0_19_353
*628 FILLER_0_19_385
*629 FILLER_0_19_417
*630 FILLER_0_20_1
*631 FILLER_0_20_33
*632 FILLER_0_20_65
*633 FILLER_0_20_97
*634 FILLER_0_20_129
*635 FILLER_0_20_161
*636 FILLER_0_20_193
*637 FILLER_0_20_225
*638 FILLER_0_20_257
*639 FILLER_0_20_289
*640 FILLER_0_20_321
*641 FILLER_0_20_353
*642 FILLER_0_20_385
*643 FILLER_0_20_417
*644 FILLER_0_21_1
*645 FILLER_0_21_33
*646 FILLER_0_21_65
*647 FILLER_0_21_97
*648 FILLER_0_21_129
*649 FILLER_0_21_161
*650 FILLER_0_21_193
*651 FILLER_0_21_225
*652 FILLER_0_21_257
*653 FILLER_0_21_289
*654 FILLER_0_21_321
*655 FILLER_0_21_353
*656 FILLER_0_21_385
*657 FILLER_0_21_417
*658 FILLER_0_22_1
*659 FILLER_0_22_33
*660 FILLER_0_22_65
*661 FILLER_0_22_97
*662 FILLER_0_22_129
*663 FILLER_0_22_161
*664 FILLER_0_22_193
*665 FILLER_0_22_225
*666 FILLER_0_22_257
*667 FILLER_0_22_289
*668 FILLER_0_22_321
*669 FILLER_0_22_353
*670 FILLER_0_22_385
*671 FILLER_0_22_417
*672 FILLER_0_23_1
*673 FILLER_0_23_33
*674 FILLER_0_23_65
*675 FILLER_0_23_97
*676 FILLER_0_23_129
*677 FILLER_0_23_161
*678 FILLER_0_23_193
*679 FILLER_0_23_225
*680 FILLER_0_23_257
*681 FILLER_0_23_289
*682 FILLER_0_23_321
*683 FILLER_0_23_353
*684 FILLER_0_23_385
*685 FILLER_0_23_417
*686 FILLER_0_24_1
*687 FILLER_0_24_33
*688 FILLER_0_24_65
*689 FILLER_0_24_97
*690 FILLER_0_24_129
*691 FILLER_0_24_161
*692 FILLER_0_24_193
*693 FILLER_0_24_225
*694 FILLER_0_24_257
*695 FILLER_0_24_289
*696 FILLER_0_24_321
*697 FILLER_0_24_353
*698 FILLER_0_24_385
*699 FILLER_0_24_417
*700 FILLER_0_25_1
*701 FILLER_0_25_33
*702 FILLER_0_25_65
*703 FILLER_0_25_97
*704 FILLER_0_25_129
*705 FILLER_0_25_161
*706 FILLER_0_25_193
*707 FILLER_0_25_225
*708 FILLER_0_25_257
*709 FILLER_0_25_289
*710 FILLER_0_25_321
*711 FILLER_0_25_353
*712 FILLER_0_25_385
*713 FILLER_0_25_417
*714 FILLER_0_26_1
*715 FILLER_0_26_33
*716 FILLER_0_26_65
*717 FILLER_0_26_97
*718 FILLER_0_26_129
*719 FILLER_0_26_161
*720 FILLER_0_26_193
*721 FILLER_0_26_225
*722 FILLER_0_26_257
*723 FILLER_0_26_289
*724 FILLER_0_26_321
*725 FILLER_0_26_353
*726 FILLER_0_26_385
*727 FILLER_0_26_417
*728 FILLER_0_27_1
*729 FILLER_0_27_33
*730 FILLER_0_27_65
*731 FILLER_0_27_97
*732 FILLER_0_27_129
*733 FILLER_0_27_161
*734 FILLER_0_27_193
*735 FILLER_0_27_225
*736 FILLER_0_27_257
*737 FILLER_0_27_289
*738 FILLER_0_27_321
*739 FILLER_0_27_353
*740 FILLER_0_27_385
*741 FILLER_0_27_417
*742 FILLER_0_28_1
*743 FILLER_0_28_33
*744 FILLER_0_28_65
*745 FILLER_0_28_97
*746 FILLER_0_28_129
*747 FILLER_0_28_161
*748 FILLER_0_28_193
*749 FILLER_0_28_225
*750 FILLER_0_28_257
*751 FILLER_0_28_289
*752 FILLER_0_28_321
*753 FILLER_0_28_353
*754 FILLER_0_28_385
*755 FILLER_0_28_417
*756 FILLER_0_29_1
*757 FILLER_0_29_33
*758 FILLER_0_29_65
*759 FILLER_0_29_97
*760 FILLER_0_29_129
*761 FILLER_0_29_161
*762 FILLER_0_29_193
*763 FILLER_0_29_225
*764 FILLER_0_29_257
*765 FILLER_0_29_289
*766 FILLER_0_29_321
*767 FILLER_0_29_353
*768 FILLER_0_29_385
*769 FILLER_0_29_417
*770 FILLER_0_30_1
*771 FILLER_0_30_33
*772 FILLER_0_30_65
*773 FILLER_0_30_97
*774 FILLER_0_30_129
*775 FILLER_0_30_161
*776 FILLER_0_30_193
*777 FILLER_0_30_225
*778 FILLER_0_30_257
*779 FILLER_0_30_289
*780 FILLER_0_30_321
*781 FILLER_0_30_353
*782 FILLER_0_30_385
*783 FILLER_0_30_417
*784 FILLER_0_31_1
*785 FILLER_0_31_33
*786 FILLER_0_31_65
*787 FILLER_0_31_97
*788 FILLER_0_31_129
*789 FILLER_0_31_161
*790 FILLER_0_31_193
*791 FILLER_0_31_225
*792 FILLER_0_31_257
*793 FILLER_0_31_289
*794 FILLER_0_31_321
*795 FILLER_0_31_353
*796 FILLER_0_31_385
*797 FILLER_0_31_417
*798 FILLER_0_32_1
*799 FILLER_0_32_33
*800 FILLER_0_32_65
*801 FILLER_0_32_97
*802 FILLER_0_32_129
*803 FILLER_0_32_161
*804 FILLER_0_32_193
*805 FILLER_0_32_225
*806 FILLER_0_32_257
*807 FILLER_0_32_289
*808 FILLER_0_32_321
*809 FILLER_0_32_353
*810 FILLER_0_32_385
*811 FILLER_0_32_417
*812 FILLER_0_33_1
*813 FILLER_0_33_33
*814 FILLER_0_33_65
*815 FILLER_0_33_97
*816 FILLER_0_33_129
*817 FILLER_0_33_161
*818 FILLER_0_33_193
*819 FILLER_0_33_225
*820 FILLER_0_33_257
*821 FILLER_0_33_289
*822 FILLER_0_33_321
*823 FILLER_0_33_353
*824 FILLER_0_33_385
*825 FILLER_0_33_417
*826 FILLER_0_34_1
*827 FILLER_0_34_33
*828 FILLER_0_34_65
*829 FILLER_0_34_97
*830 FILLER_0_34_129
*831 FILLER_0_34_161
*832 FILLER_0_34_193
*833 FILLER_0_34_225
*834 FILLER_0_34_257
*835 FILLER_0_34_289
*836 FILLER_0_34_321
*837 FILLER_0_34_353
*838 FILLER_0_34_385
*839 FILLER_0_34_417
*840 FILLER_0_35_1
*841 FILLER_0_35_33
*842 FILLER_0_35_65
*843 FILLER_0_35_97
*844 FILLER_0_35_129
*845 FILLER_0_35_161
*846 FILLER_0_35_193
*847 FILLER_0_35_225
*848 FILLER_0_35_257
*849 FILLER_0_35_289
*850 FILLER_0_35_321
*851 FILLER_0_35_353
*852 FILLER_0_35_385
*853 FILLER_0_35_417
*854 FILLER_0_36_1
*855 FILLER_0_36_33
*856 FILLER_0_36_65
*857 FILLER_0_36_97
*858 FILLER_0_36_129
*859 FILLER_0_36_161
*860 FILLER_0_36_193
*861 FILLER_0_36_225
*862 FILLER_0_36_257
*863 FILLER_0_36_289
*864 FILLER_0_36_321
*865 FILLER_0_36_353
*866 FILLER_0_36_385
*867 FILLER_0_36_417
*868 FILLER_0_37_1
*869 FILLER_0_37_33
*870 FILLER_0_37_65
*871 FILLER_0_37_97
*872 FILLER_0_37_129
*873 FILLER_0_37_161
*874 FILLER_0_37_193
*875 FILLER_0_37_225
*876 FILLER_0_37_257
*877 FILLER_0_37_289
*878 FILLER_0_37_321
*879 FILLER_0_37_353
*880 FILLER_0_37_385
*881 FILLER_0_37_417
*882 FILLER_0_38_1
*883 FILLER_0_38_33
*884 FILLER_0_38_65
*885 FILLER_0_38_97
*886 FILLER_0_38_129
*887 FILLER_0_38_161
*888 FILLER_0_38_193
*889 FILLER_0_38_225
*890 FILLER_0_38_257
*891 FILLER_0_38_289
*892 FILLER_0_38_321
*893 FILLER_0_38_353
*894 FILLER_0_38_385
*895 FILLER_0_38_417
*896 FILLER_0_39_1
*897 FILLER_0_39_33
*898 FILLER_0_39_65
*899 FILLER_0_39_97
*900 FILLER_0_39_129
*901 FILLER_0_39_161
*902 FILLER_0_39_193
*903 FILLER_0_39_225
*904 FILLER_0_39_257
*905 FILLER_0_39_289
*906 FILLER_0_39_321
*907 FILLER_0_39_353
*908 FILLER_0_39_385
*909 FILLER_0_39_417
*910 FILLER_0_40_1
*911 FILLER_0_40_33
*912 FILLER_0_40_65
*913 FILLER_0_40_97
*914 FILLER_0_40_129
*915 FILLER_0_40_161
*916 FILLER_0_40_193
*917 FILLER_0_40_225
*918 FILLER_0_40_257
*919 FILLER_0_40_289
*920 FILLER_0_40_321
*921 FILLER_0_40_353
*922 FILLER_0_40_385
*923 FILLER_0_40_417
*924 FILLER_0_41_1
*925 FILLER_0_41_33
*926 FILLER_0_41_65
*927 FILLER_0_41_97
*928 FILLER_0_41_129
*929 FILLER_0_41_161
*930 FILLER_0_41_193
*931 FILLER_0_41_225
*932 FILLER_0_41_257
*933 FILLER_0_41_289
*934 FILLER_0_41_321
*935 FILLER_0_41_353
*936 FILLER_0_41_385
*937 FILLER_0_41_417
*938 FILLER_0_42_1
*939 FILLER_0_42_33
*940 FILLER_0_42_65
*941 FILLER_0_42_97
*942 FILLER_0_42_129
*943 FILLER_0_42_161
*944 FILLER_0_42_193
*945 FILLER_0_42_225
*946 FILLER_0_42_257
*947 FILLER_0_42_289
*948 FILLER_0_42_321
*949 FILLER_0_42_353
*950 FILLER_0_42_385
*951 FILLER_0_42_417
*952 FILLER_0_43_1
*953 FILLER_0_43_33
*954 FILLER_0_43_65
*955 FILLER_0_43_97
*956 FILLER_0_43_129
*957 FILLER_0_43_161
*958 FILLER_0_43_193
*959 FILLER_0_43_225
*960 FILLER_0_43_257
*961 FILLER_0_43_289
*962 FILLER_0_43_321
*963 FILLER_0_43_353
*964 FILLER_0_43_385
*965 FILLER_0_43_417
*966 FILLER_0_44_1
*967 FILLER_0_44_33
*968 FILLER_0_44_65
*969 FILLER_0_44_97
*970 FILLER_0_44_129
*971 FILLER_0_44_161
*972 FILLER_0_44_193
*973 FILLER_0_44_225
*974 FILLER_0_44_257
*975 FILLER_0_44_289
*976 FILLER_0_44_321
*977 FILLER_0_44_353
*978 FILLER_0_44_385
*979 FILLER_0_44_417
*980 FILLER_0_45_1
*981 FILLER_0_45_33
*982 FILLER_0_45_65
*983 FILLER_0_45_97
*984 FILLER_0_45_129
*985 FILLER_0_45_161
*986 FILLER_0_45_193
*987 FILLER_0_45_225
*988 FILLER_0_45_257
*989 FILLER_0_45_289
*990 FILLER_0_45_321
*991 FILLER_0_45_353
*992 FILLER_0_45_385
*993 FILLER_0_45_417
*994 FILLER_0_46_1
*995 FILLER_0_46_33
*996 FILLER_0_46_65
*997 FILLER_0_46_97
*998 FILLER_0_46_129
*999 FILLER_0_46_161
*1000 FILLER_0_46_193
*1001 FILLER_0_46_225
*1002 FILLER_0_46_257
*1003 FILLER_0_46_289
*1004 FILLER_0_46_321
*1005 FILLER_0_46_353
*1006 FILLER_0_46_385
*1007 FILLER_0_46_417
*1008 FILLER_0_47_1
*1009 FILLER_0_47_33
*1010 FILLER_0_47_65
*1011 FILLER_0_47_97
*1012 FILLER_0_47_129
*1013 FILLER_0_47_161
*1014 FILLER_0_47_193
*1015 FILLER_0_47_225
*1016 FILLER_0_47_257
*1017 FILLER_0_47_289
*1018 FILLER_0_47_321
*1019 FILLER_0_47_353
*1020 FILLER_0_47_385
*1021 FILLER_0_47_417
*1022 FILLER_0_48_1
*1023 FILLER_0_48_33
*1024 FILLER_0_48_65
*1025 FILLER_0_48_97
*1026 FILLER_0_48_129
*1027 FILLER_0_48_161
*1028 FILLER_0_48_193
*1029 FILLER_0_48_225
*1030 FILLER_0_48_257
*1031 FILLER_0_48_289
*1032 FILLER_0_48_321
*1033 FILLER_0_48_353
*1034 FILLER_0_48_385
*1035 FILLER_0_48_417
*1036 FILLER_0_49_1
*1037 FILLER_0_49_33
*1038 FILLER_0_49_65
*1039 FILLER_0_49_97
*1040 FILLER_0_49_129
*1041 FILLER_0_49_161
*1042 FILLER_0_49_193
*1043 FILLER_0_49_225
*1044 FILLER_0_49_257
*1045 FILLER_0_49_289
*1046 FILLER_0_49_321
*1047 FILLER_0_49_353
*1048 FILLER_0_49_385
*1049 FILLER_0_49_417
*1050 FILLER_0_50_1
*1051 FILLER_0_50_33
*1052 FILLER_0_50_65
*1053 FILLER_0_50_97
*1054 FILLER_0_50_129
*1055 FILLER_0_50_161
*1056 FILLER_0_50_193
*1057 FILLER_0_50_225
*1058 FILLER_0_50_257
*1059 FILLER_0_50_289
*1060 FILLER_0_50_321
*1061 FILLER_0_50_353
*1062 FILLER_0_50_385
*1063 FILLER_0_50_417
*1064 FILLER_0_51_1
*1065 FILLER_0_51_33
*1066 FILLER_0_51_65
*1067 FILLER_0_51_97
*1068 FILLER_0_51_129
*1069 FILLER_0_51_161
*1070 FILLER_0_51_193
*1071 FILLER_0_51_225
*1072 FILLER_0_51_257
*1073 FILLER_0_51_289
*1074 FILLER_0_51_321
*1075 FILLER_0_51_353
*1076 FILLER_0_51_385
*1077 FILLER_0_51_417
*1078 FILLER_0_52_1
*1079 FILLER_0_52_33
*1080 FILLER_0_52_65
*1081 FILLER_0_52_97
*1082 FILLER_0_52_129
*1083 FILLER_0_52_161
*1084 FILLER_0_52_193
*1085 FILLER_0_52_225
*1086 FILLER_0_52_257
*1087 FILLER_0_52_289
*1088 FILLER_0_52_321
*1089 FILLER_0_52_353
*1090 FILLER_0_52_385
*1091 FILLER_0_52_417
*1092 FILLER_0_53_1
*1093 FILLER_0_53_33
*1094 FILLER_0_53_65
*1095 FILLER_0_53_97
*1096 FILLER_0_53_129
*1097 FILLER_0_53_161
*1098 FILLER_0_53_193
*1099 FILLER_0_53_225
*1100 FILLER_0_53_257
*1101 FILLER_0_53_289
*1102 FILLER_0_53_321
*1103 FILLER_0_53_353
*1104 FILLER_0_53_385
*1105 FILLER_0_53_417
*1106 FILLER_0_54_1
*1107 FILLER_0_54_33
*1108 FILLER_0_54_65
*1109 FILLER_0_54_97
*1110 FILLER_0_54_129
*1111 FILLER_0_54_161
*1112 FILLER_0_54_193
*1113 FILLER_0_54_225
*1114 FILLER_0_54_257
*1115 FILLER_0_54_289
*1116 FILLER_0_54_321
*1117 FILLER_0_54_353
*1118 FILLER_0_54_385
*1119 FILLER_0_54_417
*1120 FILLER_0_55_1
*1121 FILLER_0_55_33
*1122 FILLER_0_55_65
*1123 FILLER_0_55_97
*1124 FILLER_0_55_129
*1125 FILLER_0_55_161
*1126 FILLER_0_55_193
*1127 FILLER_0_55_225
*1128 FILLER_0_55_257
*1129 FILLER_0_55_289
*1130 FILLER_0_55_321
*1131 FILLER_0_55_353
*1132 FILLER_0_55_385
*1133 FILLER_0_55_417
*1134 FILLER_0_56_1
*1135 FILLER_0_56_33
*1136 FILLER_0_56_65
*1137 FILLER_0_56_97
*1138 FILLER_0_56_129
*1139 FILLER_0_56_161
*1140 FILLER_0_56_193
*1141 FILLER_0_56_225
*1142 FILLER_0_56_257
*1143 FILLER_0_56_289
*1144 FILLER_0_56_321
*1145 FILLER_0_56_353
*1146 FILLER_0_56_385
*1147 FILLER_0_56_417

*PORTS
clk I

*D_NET *2 0.00116935
*CONN
*I *125:A I *D MUX2_X1
*I *118:A I *D MUX2_X1
*I *97:A I *D MUX2_X1
*I *111:A I *D MUX2_X1
*I *104:A I *D MUX2_X1
*I *67:Q O *D DFF_X1
*CAP
1 *125:A 7.35527e-06
2 *118:A 1.79135e-05
3 *97:A 3.39756e-05
4 *111:A 1.2023e-05
5 *104:A 8.20216e-05
6 *67:Q 0.000110058
7 *2:38 8.6621e-05
8 *2:27 0.000107898
9 *2:23 0.000115637
10 *2:8 0.000239218
11 *97:A *97:B 7.65847e-06
12 *104:A *104:B 1.36076e-05
13 *111:A *111:B 1.40196e-06
14 *118:A *97:B 2.52965e-06
15 *118:A *111:B 0
16 *118:A *115:B 6.38328e-07
17 *118:A *118:B 1.18589e-06
18 *118:A *3:45 1.66988e-05
19 *125:A *104:B 2.39679e-06
20 *125:A *125:B 6.85774e-07
21 *125:A *129:B 2.75346e-06
22 *2:23 *3:23 9.1665e-07
23 *2:27 *3:23 4.31977e-05
24 *2:27 *3:34 0.00015536
25 *2:38 *3:34 4.31977e-05
26 *2:38 *3:45 6.43974e-05
*RES
1 *67:Q *2:8 22.4643 
2 *2:8 *104:A 19.25 
3 *2:8 *2:23 10.7143 
4 *2:23 *2:27 15.4286 
5 *2:27 *111:A 11.25 
6 *2:27 *2:38 5.67857 
7 *2:38 *97:A 13.75 
8 *2:38 *118:A 12.1786 
9 *2:23 *125:A 6.25 
*END

*D_NET *3 0.00114506
*CONN
*I *118:B I *D MUX2_X1
*I *97:B I *D MUX2_X1
*I *111:B I *D MUX2_X1
*I *125:B I *D MUX2_X1
*I *104:B I *D MUX2_X1
*I *68:Q O *D DFF_X1
*CAP
1 *118:B 1.65766e-05
2 *97:B 3.90718e-05
3 *111:B 6.95017e-06
4 *125:B 8.31323e-06
5 *104:B 3.69424e-05
6 *68:Q 0.000100107
7 *3:45 9.15098e-05
8 *3:34 0.000101966
9 *3:23 9.12327e-05
10 *3:8 0.000160815
11 *104:B *129:B 5.4104e-05
12 *111:B *115:B 1.21774e-06
13 *118:B *115:B 2.84765e-06
14 *118:B *122:B 1.21774e-06
15 *125:B *129:B 8.43215e-07
16 *3:23 *129:B 3.02351e-05
17 *3:34 *129:B 3.02372e-05
18 *3:45 *115:B 1.76415e-05
19 *97:A *97:B 7.65847e-06
20 *104:A *104:B 1.36076e-05
21 *111:A *111:B 1.40196e-06
22 *118:A *97:B 2.52965e-06
23 *118:A *111:B 0
24 *118:A *118:B 1.18589e-06
25 *118:A *3:45 1.66988e-05
26 *125:A *104:B 2.39679e-06
27 *125:A *125:B 6.85774e-07
28 *2:23 *3:23 9.1665e-07
29 *2:27 *3:23 4.31977e-05
30 *2:27 *3:34 0.00015536
31 *2:38 *3:34 4.31977e-05
32 *2:38 *3:45 6.43974e-05
*RES
1 *68:Q *3:8 21.1071 
2 *3:8 *104:B 15.75 
3 *3:8 *3:23 3.92857 
4 *3:23 *125:B 10.75 
5 *3:23 *3:34 10.4286 
6 *3:34 *111:B 10.75 
7 *3:34 *3:45 5.67857 
8 *3:45 *97:B 14.25 
9 *3:45 *118:B 11.6786 
*END

*D_NET *4 0.00147255
*CONN
*I *112:A I *D MUX2_X1
*I *98:A I *D MUX2_X1
*I *119:A I *D MUX2_X1
*I *126:A I *D MUX2_X1
*I *105:A I *D MUX2_X1
*I *69:Q O *D DFF_X1
*CAP
1 *112:A 0
2 *98:A 6.33288e-06
3 *119:A 5.91864e-05
4 *126:A 6.22881e-06
5 *105:A 7.19285e-05
6 *69:Q 0.000120224
7 *4:38 0.000102882
8 *4:34 0.000277533
9 *4:19 0.000257623
10 *4:8 0.000203376
11 *98:A *5:36 1.27467e-05
12 *105:A *73:A1 3.85541e-05
13 *105:A *106:B 0
14 *105:A *109:A 5.98709e-05
15 *105:A *5:12 8.12817e-06
16 *119:A *102:A 0
17 *119:A *119:B 1.0057e-05
18 *126:A *5:12 7.19036e-06
19 *4:8 *70:D 1.61946e-05
20 *4:8 *109:B 0
21 *4:8 *5:8 3.02351e-05
22 *4:19 *109:B 0
23 *4:19 *5:8 2.96955e-05
24 *4:34 *109:B 0
25 *4:34 *112:B 2.16072e-07
26 *4:34 *126:B 2.57414e-05
27 *4:34 *5:8 1.66988e-05
28 *4:34 *5:23 0
29 *4:38 *5:23 4.32298e-05
30 *4:38 *5:36 6.86795e-05
*RES
1 *69:Q *4:8 24.5 
2 *4:8 *105:A 19.75 
3 *4:8 *4:19 1.60714 
4 *4:19 *126:A 10.75 
5 *4:19 *4:34 31.8929 
6 *4:34 *4:38 10.6786 
7 *4:38 *119:A 15.75 
8 *4:38 *98:A 10.9286 
9 *4:34 *112:A 5 
*END

*D_NET *5 0.0012236
*CONN
*I *126:B I *D MUX2_X1
*I *98:B I *D MUX2_X1
*I *119:B I *D MUX2_X1
*I *112:B I *D MUX2_X1
*I *105:B I *D MUX2_X1
*I *70:Q O *D DFF_X1
*CAP
1 *126:B 1.02245e-05
2 *98:B 1.57206e-05
3 *119:B 5.1755e-05
4 *112:B 9.07379e-06
5 *105:B 4.63733e-05
6 *70:Q 2.66316e-05
7 *5:36 9.8922e-05
8 *5:23 0.000248443
9 *5:12 0.000303411
10 *5:8 8.59702e-05
11 *98:B *113:A 0
12 *105:B *109:A 2.2456e-05
13 *105:B *130:B 0
14 *119:B *102:A 3.24108e-07
15 *119:B *113:A 0
16 *5:12 *109:A 1.87369e-06
17 *5:12 *130:A 0
18 *5:23 *73:A1 9.5257e-06
19 *5:23 *102:A 7.66675e-07
20 *5:23 *109:B 1.72426e-05
21 *5:23 *7:18 0
22 *5:23 *7:20 0
23 *5:36 *102:A 4.62991e-06
24 *5:36 *116:A 1.76415e-05
25 *98:A *5:36 1.27467e-05
26 *105:A *5:12 8.12817e-06
27 *119:A *119:B 1.0057e-05
28 *126:A *5:12 7.19036e-06
29 *4:8 *5:8 3.02351e-05
30 *4:19 *5:8 2.96955e-05
31 *4:34 *112:B 2.16072e-07
32 *4:34 *126:B 2.57414e-05
33 *4:34 *5:8 1.66988e-05
34 *4:34 *5:23 0
35 *4:38 *5:23 4.32298e-05
36 *4:38 *5:36 6.86795e-05
*RES
1 *70:Q *5:8 13.6429 
2 *5:8 *5:12 10.25 
3 *5:12 *105:B 10.25 
4 *5:12 *5:23 29 
5 *5:23 *112:B 10.75 
6 *5:23 *5:36 10.6786 
7 *5:36 *119:B 10.25 
8 *5:36 *98:B 6.67857 
9 *5:8 *126:B 11.6071 
*END

*D_NET *6 0.0016697
*CONN
*I *106:A I *D MUX2_X1
*I *113:A I *D MUX2_X1
*I *120:A I *D MUX2_X1
*I *99:A I *D MUX2_X1
*I *127:A I *D MUX2_X1
*I *71:Q O *D DFF_X1
*CAP
1 *106:A 6.25657e-05
2 *113:A 7.10769e-05
3 *120:A 3.44067e-05
4 *99:A 1.28749e-05
5 *127:A 1.38604e-05
6 *71:Q 0.000100792
7 *6:40 0.000169704
8 *6:29 0.000195598
9 *6:18 0.000210336
10 *6:14 0.000241331
11 *99:A *99:B 2.08416e-06
12 *106:A *73:A1 0
13 *106:A *106:B 1.36076e-05
14 *113:A *74:A1 6.39357e-05
15 *113:A *113:B 5.91516e-06
16 *113:A *116:A 3.85541e-05
17 *113:A *120:B 2.52965e-06
18 *113:A *7:12 2.51997e-05
19 *113:A *7:18 4.26902e-05
20 *120:A *74:A1 6.44217e-06
21 *120:A *102:A 0
22 *120:A *120:B 6.87431e-06
23 *127:A *109:A 0
24 *127:A *65:12 0
25 *6:14 *73:A1 7.34533e-06
26 *6:18 *7:20 6.89308e-05
27 *6:18 *7:22 1.65484e-05
28 *6:29 *7:18 0.000110807
29 *6:29 *7:20 1.65484e-05
30 *6:40 *74:A1 4.26902e-05
31 *6:40 *7:18 8.64528e-05
32 *98:B *113:A 0
33 *119:B *113:A 0
*RES
1 *71:Q *6:14 25.2857 
2 *6:14 *6:18 16.7857 
3 *6:18 *127:A 11.25 
4 *6:18 *6:29 17.2143 
5 *6:29 *99:A 11.25 
6 *6:29 *6:40 9.75 
7 *6:40 *120:A 13.75 
8 *6:40 *113:A 20.3929 
9 *6:14 *106:A 11.75 
*END

*D_NET *7 0.004665
*CONN
*I *113:B I *D MUX2_X1
*I *120:B I *D MUX2_X1
*I *127:B I *D MUX2_X1
*I *106:B I *D MUX2_X1
*I *85:A I *D MUX2_X1
*I *77:A I *D MUX2_X1
*I *93:A I *D MUX2_X1
*I *81:A I *D MUX2_X1
*I *89:A I *D MUX2_X1
*I *72:ZN O *D AND2_X2
*CAP
1 *113:B 4.87353e-05
2 *120:B 3.52007e-05
3 *127:B 0
4 *106:B 4.87266e-05
5 *85:A 0
6 *77:A 0
7 *93:A 8.71307e-06
8 *81:A 0.000112657
9 *89:A 4.28051e-05
10 *72:ZN 0.000244827
11 *7:69 0.000282797
12 *7:45 0.000315821
13 *7:30 0.000304357
14 *7:24 0.000355103
15 *7:22 0.00023746
16 *7:20 0.000370798
17 *7:18 0.000274708
18 *7:12 0.000233497
19 *7:10 0.000306965
20 *81:A *81:B 8.26038e-06
21 *81:A *8:33 6.06867e-06
22 *81:A *8:76 0
23 *89:A *89:B 1.094e-05
24 *89:A *91:B 1.72405e-05
25 *89:A *8:50 0
26 *106:B *73:A1 6.07323e-06